<?xml version="1.0" encoding="UTF-8"?>
<nodes xmlns:xsi="http://www.w3.org/2001/XMLSchema-instance" xsi:noNamespaceSchemaLocation="http://sumo.dlr.de/xsd/nodes_file.xsd">
   <node id="a1" x="0.0" y="0.0" />
   <node id="a2" x="2000.0" y="0.0" />  
   <node id="b" x="-300.00" y="0.0" /> 
   <node id="c" x="2300.00" y="0.0" />    
</nodes>