<?xml version='1.0' encoding='UTF-8'?>
<edges xmlns:xsi="http://www.w3.org/2001/XMLSchema-instance" xsi:noNamespaceSchemaLocation="http://sumo.dlr.de/xsd/edges_file.xsd">
  <edge id="1" from="1" to="2" length="100" spreadType="center" numLanes="4" speed="23"/>
  <edge id="2" from="2" to="3" length="310" spreadType="center" numLanes="4" speed="23"/>
  <edge id="3" from="3" to="4" length="140" spreadType="center" numLanes="4" speed="23"/>
  <edge id="4" from="4" to="5" length="280" spreadType="center" numLanes="2" speed="23"/>
  <edge id="5" from="5" to="6" length="155" spreadType="center" numLanes="1" speed="23"/>
  <edge id="fake_edge" from="fake1" to="fake2" length="1" spreadType="center" numLanes="1" speed="23"/>
</edges>
